      61
 i =        2, time =        2.000, E =      -347.9442559988
 Li         7.5189771884        7.4886000788        7.4963086246
  C         9.2122790706       10.0134409838        9.3695514082
  C         8.3260883272       10.8102952972        8.5202569641
  C         6.9906157471       10.6677883958        9.0404100474
  C         7.0246307239        9.7939182284       10.1868524921
  C         8.3915320727        9.3798915031       10.4094978573
  C        10.9752239944        8.0700024362        6.9329850374
  C        10.5032573978        9.3746659157        7.3628528024
  C        10.2666199140        9.3267536011        8.7969380052
  C        10.5734146719        7.9776734685        9.2333819885
  C        11.0069992804        7.2131088608        8.0681109138
  C         7.8766998631       10.0541255111        5.0550466998
  C         7.4447620384       10.8099311506        6.2025435293
  C         8.5565229883       10.8794309566        7.1573271849
  C         9.6727737968       10.1695914769        6.5603880742
  C         9.2577238506        9.6514059534        5.2631224253
  C         4.3774595835        9.1379537639        7.0635910905
  C         4.8212214434        9.6568331916        8.3515008274
  C         5.9017015143       10.6127051896        8.1279246410
  C         6.1333994840       10.6815157120        6.7053194077
  C         5.2023043543        9.7720566004        6.0559316806
  C         5.3125359144        6.6200849834       10.1585757016
  C         6.2780802975        7.5241362310       10.8179464339
  C         5.9443091877        8.8740771817       10.3927584247
  C         4.8420811325        8.8142377403        9.4551793482
  C         4.4619939058        7.4215039788        9.3391170278
  C         9.3933744798        5.9422599023       10.0928645268
  C         9.7898536638        7.3562791294       10.2236691966
  C         8.6587057631        8.0785650097       10.8196051976
  C         7.5795478338        7.1260489090       11.0290305688
  C         8.0401896000        5.8268645226       10.6022406043
  C         7.9861803907        5.2045877813        4.8240268438
  C         6.6331131231        5.6241268002        4.6131053588
  C         5.7957836465        4.9744287641        5.6183406269
  C         6.6876289823        4.1899937566        6.4638652230
  C         8.0166527316        4.3088448481        5.9664838502
  C         9.6617080421        8.3875935058        4.8323273213
  C         8.7305297262        7.4923995794        4.1804007971
  C         9.0307433362        6.1211803118        4.6072142853
  C        10.1346682703        6.1926527866        5.5393975501
  C        10.5531506582        7.5887832115        5.6565783694
  C         5.6067793578        9.0343452462        4.9056770168
  C         5.2082945922        7.6399352023        4.7716038665
  C         6.3285434780        6.9133746024        4.1839178082
  C         7.3939521343        7.8592588842        3.9655210872
  C         6.9565492224        9.1799313974        4.3960729762
  C         4.0305878018        6.9262448634        8.0549291759
  C         4.4872654166        5.6283464159        7.6287215190
  C         4.7090578250        5.6794277511        6.1896129586
  C         4.4306485264        7.0362400937        5.7624668817
  C         3.9944655330        7.8012198100        6.9241031660
  C         7.1403577279        4.9334773606        9.9657193220
  C         7.5602318922        4.2127825454        8.7945407275
  C         6.4377185548        4.1195232045        7.8515353236
  C         5.3121425116        4.8440712150        8.4234097612
  C         5.7524596072        5.3455929431        9.7364285580
  C        10.6334308238        5.8470128119        7.9407281878
  C        10.1923352835        5.3427012022        6.6628326837
  C         9.1057353151        4.3862739873        6.8817613122
  C         8.8636411445        4.3225711733        8.2946252459
  C         9.7987721113        5.2328273214        8.9713989156
