      61
 i =        1, time =        1.000, E =      -347.9516624930
 Li         7.5095451751        7.4942761246        7.4981443646
  C         9.2102488830       10.0154994313        9.3720370696
  C         8.3277863390       10.8141465904        8.5247379082
  C         6.9815899849       10.6753814332        9.0376741607
  C         7.0163321503        9.7977382555       10.1863443029
  C         8.3885985309        9.3829669859       10.4043248895
  C        10.9749903033        8.0730983615        6.9296828358
  C        10.5109338320        9.3799397387        7.3664637645
  C        10.2721622866        9.3226521225        8.8016000712
  C        10.5751781795        7.9685850291        9.2367147254
  C        11.0083828336        7.2056804107        8.0713340493
  C         7.8734008437       10.0561812822        5.0493315199
  C         7.4446993780       10.8089043187        6.2079661721
  C         8.5598871712       10.8809728988        7.1538368167
  C         9.6735065527       10.1620054011        6.5603677326
  C         9.2490424835        9.6484893022        5.2618203260
  C         4.3767593769        9.1443972360        7.0587123035
  C         4.8222315052        9.6548785424        8.3503129835
  C         5.8988697585       10.6136889312        8.1289201721
  C         6.1362564850       10.6783235741        6.7033853700
  C         5.1993507730        9.7729259257        6.0467401411
  C         5.3172007085        6.6198557466       10.1611292918
  C         6.2718369567        7.5239878917       10.8215171589
  C         5.9566193216        8.8750928510       10.3928917156
  C         4.8462012385        8.8107248560        9.4581582040
  C         4.4546523098        7.4170918520        9.3340538884
  C         9.3911777257        5.9487968870       10.0910164040
  C         9.7886697049        7.3559099959       10.2243523780
  C         8.6661640713        8.0799283607       10.8177264755
  C         7.5850383689        7.1257436396       11.0304415470
  C         8.0405697587        5.8211091009       10.5992497990
  C         7.9891986013        5.2016044800        4.8191033775
  C         6.6239467729        5.6190572060        4.6071057458
  C         5.7939708077        4.9782648924        5.6217739997
  C         6.6792388254        4.1860855416        6.4669814480
  C         8.0219714475        4.3127868168        5.9658493320
  C         9.6695498834        8.3841206827        4.8341850183
  C         8.7328634675        7.4844757345        4.1777377040
  C         9.0305817926        6.1223338824        4.6070488876
  C        10.1419625223        6.1927772772        5.5389366749
  C        10.5531666378        7.5882010398        5.6639640242
  C         5.6089244095        9.0391308991        4.9080366884
  C         5.2104153998        7.6421915038        4.7732780837
  C         6.3273354891        6.9160749095        4.1840709663
  C         7.4013377021        7.8667269224        3.9667925901
  C         6.9577824527        9.1824336401        4.3998711092
  C         4.0279680398        6.9248901348        8.0641488521
  C         4.4843583737        5.6215182326        7.6293916652
  C         4.7153900015        5.6805979072        6.1917023131
  C         4.4269438051        7.0385125493        5.7611707550
  C         3.9923724123        7.8017349240        6.9247047460
  C         7.1353683731        4.9375567033        9.9612000533
  C         7.5578920198        4.2025954921        8.7905498881
  C         6.4371775239        4.1184524183        7.8508380767
  C         5.3186767632        4.8449911924        8.4312926479
  C         5.7562093696        5.3498834851        9.7379819817
  C        10.6286603067        5.8478267277        7.9433400456
  C        10.1846726471        5.3448639232        6.6570720983
  C         9.1048835404        4.3858173491        6.8759491581
  C         8.8621757935        4.3237027548        8.2965218229
  C         9.8011378553        5.2297231634        8.9673377141
